units(length='cm', time='s', quantity='mol', act_energy='kcal/mol')

ideal_gas(name='gas',
          elements="H D T C Ci O Oi N Ne Ar He Si S F Cl Br I X",
          species="""Ar        He        Ne        H2(1)     N2(2)
                     H(9)      NNHJ(10)  HNNH(17)  H2N2(19)""",
          reactions='gas-*',
          transport='Mix',
          initial_state=state(temperature=300.0, pressure=OneAtm))

ideal_interface(name='surface1',
                elements="H D T C Ci O Oi N Ne Ar He Si S F Cl Br I X",
                species="""X(3)       HX(11)     H2X(12)    N2X(14)
                          HN2X(23)   NNHJX(24)  NNHJX(25)  H2N2X(34)
                          H2N2X(40)""",
                site_density=2.943e-09,
                phases="gas",
          reactions='surface1-*',
                initial_state=state(temperature=300.0, pressure=OneAtm))

#-------------------------------------------------------------------------------
# Element data
#-------------------------------------------------------------------------------

element(symbol='Ci', atomic_mass=13.003)
element(symbol='D', atomic_mass=2.014)
element(symbol='Oi', atomic_mass=18.0)
element(symbol='T', atomic_mass=3.016)
element(symbol='X', atomic_mass=195.083)
#-------------------------------------------------------------------------------
# Species data
#-------------------------------------------------------------------------------

species(name='Ar',
        atoms='Ar:1',
        thermo=(NASA([200.00, 1000.00],
                     [ 2.50000000E+00,  0.00000000E+00,  0.00000000E+00,
                       0.00000000E+00,  0.00000000E+00, -7.45375000E+02,
                       4.37967000E+00]),
                NASA([1000.00, 6000.00],
                     [ 2.50000000E+00,  0.00000000E+00,  0.00000000E+00,
                       0.00000000E+00,  0.00000000E+00, -7.45375000E+02,
                       4.37967000E+00])),
        transport=gas_transport(geom='atom',
                                diam=3.33,
                                well_depth=136.501))

species(name='He',
        atoms='He:1',
        thermo=(NASA([200.00, 1000.00],
                     [ 2.50000000E+00,  0.00000000E+00,  0.00000000E+00,
                       0.00000000E+00,  0.00000000E+00, -7.45375000E+02,
                       9.28724000E-01]),
                NASA([1000.00, 6000.00],
                     [ 2.50000000E+00,  0.00000000E+00,  0.00000000E+00,
                       0.00000000E+00,  0.00000000E+00, -7.45375000E+02,
                       9.28724000E-01])),
        transport=gas_transport(geom='atom',
                                diam=2.576,
                                well_depth=10.2))

species(name='Ne',
        atoms='Ne:1',
        thermo=(NASA([200.00, 1000.00],
                     [ 2.50000000E+00,  0.00000000E+00,  0.00000000E+00,
                       0.00000000E+00,  0.00000000E+00, -7.45375000E+02,
                       3.35532000E+00]),
                NASA([1000.00, 6000.00],
                     [ 2.50000000E+00,  0.00000000E+00,  0.00000000E+00,
                       0.00000000E+00,  0.00000000E+00, -7.45375000E+02,
                       3.35532000E+00])),
        transport=gas_transport(geom='atom',
                                diam=3.758,
                                well_depth=148.6))

species(name='H2(1)',
        atoms='H:2',
        thermo=(NASA([100.00, 1959.08],
                     [ 3.43536422E+00,  2.12709424E-04, -2.78622934E-07,
                       3.40265512E-10, -7.76027902E-14, -1.03135985E+03,
                      -3.90841773E+00]),
                NASA([1959.08, 5000.00],
                     [ 2.78815464E+00,  5.87655486E-04,  1.59003608E-07,
                      -5.52725361E-11,  4.34301024E-15, -5.96137665E+02,
                       1.12799013E-01])),
        transport=gas_transport(geom='linear',
                                diam=2.92,
                                well_depth=38.0,
                                polar=0.79,
                                rot_relax=280.0))

species(name='N2(2)',
        atoms='N:2',
        thermo=(NASA([200.00, 1000.00],
                     [ 3.53101000E+00, -1.23661000E-04, -5.02999000E-07,
                       2.43531000E-09, -1.40881000E-12, -1.04698000E+03,
                       2.96747000E+00]),
                NASA([1000.00, 6000.00],
                     [ 2.95258000E+00,  1.39690000E-03, -4.92632000E-07,
                       7.86010000E-11, -4.60755000E-15, -9.23949000E+02,
                       5.87189000E+00])),
        transport=gas_transport(geom='linear',
                                diam=3.621,
                                well_depth=97.53,
                                polar=1.76,
                                rot_relax=4.0))

species(name='H(9)',
        atoms='H:1',
        thermo=(NASA([100.00, 3459.60],
                     [ 2.50000000E+00,  9.24384602E-15, -1.36779837E-17,
                       6.66184769E-21, -1.00106912E-24,  2.54742178E+04,
                      -4.44972896E-01]),
                NASA([3459.60, 5000.00],
                     [ 2.49999999E+00,  9.20455546E-12, -3.58608293E-15,
                       6.15198922E-19, -3.92041801E-23,  2.54742178E+04,
                      -4.44972842E-01])),
        transport=gas_transport(geom='atom',
                                diam=2.05,
                                well_depth=145.0))

species(name='NNHJ(10)',
        atoms='H:1 N:2',
        thermo=(NASA([100.00, 1085.69],
                     [ 4.05639457E+00, -1.73134497E-03,  9.19514103E-06,
                      -8.17674566E-09,  2.35157297E-12,  2.87988555E+04,
                       4.03299590E+00]),
                NASA([1085.69, 5000.00],
                     [ 3.08739385E+00,  3.98312407E-03, -1.66275704E-06,
                       3.09811390E-10, -2.15377742E-14,  2.88828816E+04,
                       8.20549912E+00])),
        transport=gas_transport(geom='nonlinear',
                                diam=3.798,
                                well_depth=71.4,
                                rot_relax=1.0))

species(name='HNNH(17)',
        atoms='H:2 N:2',
        thermo=(NASA([100.00, 1069.31],
                     [ 4.14012186E+00, -4.11623833E-03,  1.94639195E-05,
                      -1.72803794E-08,  5.01314833E-12,  2.27773498E+04,
                       3.13599892E+00]),
                NASA([1069.31, 5000.00],
                     [ 2.10835239E+00,  7.76420277E-03, -3.20569837E-06,
                       5.96347165E-10, -4.15021724E-14,  2.29671665E+04,
                       1.19300671E+01])),
        transport=gas_transport(geom='nonlinear',
                                diam=3.798,
                                well_depth=71.4,
                                rot_relax=1.0))

species(name='H2N2(19)',
        atoms='H:2 N:2',
        thermo=(NASA([100.00, 1042.92],
                     [ 4.10469529E+00, -3.70491813E-03,  1.98460953E-05,
                      -1.84450617E-08,  5.56760145E-12,  3.48606596E+04,
                       3.20243319E+00]),
                NASA([1042.92, 5000.00],
                     [ 2.43688193E+00,  7.45359477E-03, -3.05163025E-06,
                       5.69831911E-10, -3.99390902E-14,  3.49495729E+04,
                       1.00772134E+01])),
        transport=gas_transport(geom='nonlinear',
                                diam=3.467,
                                well_depth=387.557,
                                dipole=3.507,
                                polar=2.349,
                                rot_relax=1.0))

species(name='X(3)',
        atoms='X:1',
        thermo=(NASA([100.00, 1554.79],
                     [ 7.10148144E-03, -4.25627912E-05,  8.98555226E-08,
                      -7.80214407E-11,  2.32471659E-14, -8.76106013E-01,
                      -3.11214469E-02]),
                NASA([1554.79, 5000.00],
                     [ 1.60297302E-01, -2.52231685E-04,  1.14179388E-07,
                      -1.21467614E-11,  3.85758990E-16, -7.08087280E+01,
                      -9.09512410E-01])))

species(name='HX(11)',
        atoms='H:1 X:1',
        thermo=(NASA([100.00, 952.92],
                     [-3.80976314E-01,  5.47242013E-03,  2.60864007E-06,
                      -9.64895670E-09,  4.63917161E-12, -1.40188377E+03,
                       1.01729412E+00]),
                NASA([952.92, 5000.00],
                     [ 2.80343297E+00, -5.41109881E-04,  4.99544622E-07,
                      -7.55050884E-11,  3.06845145E-15, -2.34264866E+03,
                      -1.59438832E+01])))

species(name='H2X(12)',
        atoms='H:2 X:1',
        thermo=(NASA([100.00, 911.31],
                     [-1.27861604E+00,  3.68016209E-02, -8.90320047E-05,
                       8.91165168E-08, -3.14526606E-11, -1.33397475E+03,
                       1.13162290E+01]),
                NASA([911.31, 5000.00],
                     [ 6.45768083E-01,  6.69539927E-03, -3.82676790E-06,
                       7.04691530E-10, -4.40996127E-14, -7.85311747E+02,
                       7.14557149E+00])))

species(name='N2X(14)',
        atoms='N:2 X:1',
        thermo=(NASA([100.00, 901.88],
                     [-1.25624696E+00,  3.72147337E-02, -9.15798635E-05,
                       9.40903832E-08, -3.39887369E-11, -3.81700203E+03,
                       1.47534501E+01]),
                NASA([901.88, 5000.00],
                     [-2.95560642E-01,  9.13295764E-03, -5.25573058E-06,
                       9.93915425E-10, -6.45038285E-14, -3.02150066E+03,
                       1.55888265E+01])))

species(name='HN2X(23)',
        atoms='H:1 N:2 X:1',
        thermo=(NASA([100.00, 874.36],
                     [-1.45652665E+00,  3.63544854E-02, -6.79155475E-05,
                       6.13104994E-08, -2.07821835E-11,  1.43990535E+04,
                       5.10467627E+00]),
                NASA([874.36, 5000.00],
                     [ 2.63466916E+00,  8.46231647E-03, -4.32380811E-06,
                       8.21798985E-10, -5.52802245E-14,  1.40343676E+04,
                      -1.20779297E+01])))

species(name='NNHJX(24)',
        atoms='H:1 N:2 X:1',
        thermo=(NASA([100.00, 969.36],
                     [ 3.86577520E+00,  1.09715819E-03,  9.93245767E-06,
                      -1.25405985E-08,  4.57380578E-12,  3.19869506E+04,
                      -7.06007010E+00]),
                NASA([969.36, 5000.00],
                     [ 4.37374022E+00,  3.70792611E-03, -1.39089534E-06,
                       2.55985735E-10, -1.83064579E-14,  3.16673279E+04,
                      -1.06355607E+01])))

species(name='NNHJX(25)',
        atoms='H:1 N:2 X:1',
        thermo=(NASA([100.00, 920.44],
                     [ 4.23103334E+00, -1.56714682E-02,  6.87438277E-05,
                      -8.05973939E-08,  3.04983840E-11,  8.70150422E+03,
                      -1.89626413E+01]),
                NASA([920.44, 5000.00],
                     [ 7.33900632E+00, -2.03847236E-03,  2.29862619E-06,
                      -4.37569114E-10,  2.54376532E-14,  6.97972657E+03,
                      -3.99442040E+01])))

species(name='H2N2X(34)',
        atoms='H:2 N:2 X:1',
        thermo=(NASA([100.00, 850.85],
                     [-1.59209086E+00,  3.79911855E-02, -6.23728520E-05,
                       5.24897851E-08, -1.70984870E-11,  1.10887465E+04,
                       5.16820819E+00]),
                NASA([850.85, 5000.00],
                     [ 3.41372013E+00,  9.84538673E-03, -4.62177072E-06,
                       8.68728757E-10, -5.89534538E-14,  1.04038716E+04,
                      -1.71922445E+01])))

species(name='H2N2X(40)',
        atoms='H:2 N:2 X:1',
        thermo=(NASA([100.00, 930.45],
                     [ 4.14285443E+00, -1.01389387E-02,  5.01229385E-05,
                      -5.68388645E-08,  2.08455411E-11,  2.54960197E+04,
                      -1.26289366E+01]),
                NASA([930.45, 5000.00],
                     [ 5.19664469E+00,  3.26100594E-03, -3.84794197E-07,
                       6.03497301E-11, -7.12939681E-15,  2.45237707E+04,
                      -2.18077071E+01])))

#-------------------------------------------------------------------------------
# Reaction data
#-------------------------------------------------------------------------------
#  Reaction index: Chemkin #1; RMG #3
#  Template reaction: R_Recombination
#  Flux pairs: H(9), H2(1); H(9), H2(1);
#  Matched reaction 56 H + H <=> H2 in R_Recombination/training
#  This reaction matched rate rule [Root_1R->H_N-2R->S_2CHNO->H]
#  family: R_Recombination

# Reaction 1
reaction('H(9) + H(9) <=> H2(1)', [5.450000e+10, 0.0, 1.5],
         id='gas-1',
         options='duplicate')
#  Reaction index: Chemkin #2; RMG #11
#  Template reaction: R_Recombination
#  Flux pairs: H(9), H2(1); H(9), H2(1);
#  Matched reaction 56 H + H <=> H2 in R_Recombination/training
#  This reaction matched rate rule [Root_1R->H_N-2R->S_2CHNO->H]
#  family: R_Recombination

# Reaction 2
reaction('H(9) + H(9) <=> H2(1)', [5.450000e+10, 0.0, 1.5],
         id='gas-2',
         options='duplicate')
#  Reaction index: Chemkin #3; RMG #4
#  Template reaction: Disproportionation
#  Flux pairs: H(9), H2(1); NNHJ(10), N2(2);
#  Matched reaction 79 H + HN2 <=> H2 + N2 in Disproportionation/training
#  This reaction matched rate rule [H_rad;N3d/H_d_Nrad]
#  family: Disproportionation

# Reaction 3
reaction('H(9) + NNHJ(10) <=> N2(2) + H2(1)', [2.400000e+08, 1.5, -0.89],
         id='gas-3',
         options='duplicate')
#  Reaction index: Chemkin #4; RMG #10
#  Template reaction: R_Addition_MultipleBond
#  Flux pairs: H(9), NNHJ(10); N2(2), NNHJ(10);
#  Matched reaction 185 N2 + H <=> NNH in R_Addition_MultipleBond/training
#  This reaction matched rate rule [N3t_N3t;HJ]
#  family: R_Addition_MultipleBond

# Reaction 4
reaction('N2(2) + H(9) <=> NNHJ(10)', [7.600000e+15, -0.64, 15.333],
         id='gas-4')
#  Reaction index: Chemkin #5; RMG #24
#  Template reaction: Disproportionation
#  Flux pairs: NNHJ(10), N2(2); H(9), H2(1);
#  Matched reaction 79 H + HN2 <=> H2 + N2 in Disproportionation/training
#  This reaction matched rate rule [H_rad;N3d/H_d_Nrad]
#  family: Disproportionation

# Reaction 5
reaction('H(9) + NNHJ(10) <=> N2(2) + H2(1)', [2.400000e+08, 1.5, -0.89],
         id='gas-5',
         options='duplicate')
#  Reaction index: Chemkin #6; RMG #14
#  Template reaction: H_Abstraction
#  Flux pairs: HNNH(17), NNHJ(10); H(9), H2(1);
#  Matched reaction 636 H + H2N2 <=> H2 + HN2 in H_Abstraction/training
#  This reaction matched rate rule [H2;N3d_rad]
#  family: H_Abstraction

# Reaction 6
reaction('H(9) + HNNH(17) <=> NNHJ(10) + H2(1)', [9.600000e+08, 1.5, 1.58],
         id='gas-6')
#  Reaction index: Chemkin #7; RMG #25
#  Template reaction: R_Recombination
#  Flux pairs: NNHJ(10), HNNH(17); H(9), HNNH(17);
#  BM rule fitted to 2 training reactions at node Root_1R->H_N-2R->S_N-2CHNO->H_N-2CNO-inRing_Ext-2CNO-R_Sp-3R!H=2CCNNOO
#      Total Standard Deviation in ln(k): 7.12496428854
#  Exact match found for rate rule [Root_1R->H_N-2R->S_N-2CHNO->H_N-2CNO-inRing_Ext-2CNO-R_Sp-3R!H=2CCNNOO]
#  Euclidian distance = 0
#  family: R_Recombination

# Reaction 7
reaction('H(9) + NNHJ(10) <=> HNNH(17)', [8.244740e+18, -1.499, 0.0],
         id='gas-7')
#  Reaction index: Chemkin #8; RMG #28
#  Template reaction: Disproportionation
#  Flux pairs: NNHJ(10), N2(2); NNHJ(10), HNNH(17);
#  Estimated using template [N3d_rad;N3d/H_d_Nrad] for rate rule [N3d_rad/N;N3d/H_d_Nrad]
#  Euclidian distance = 1.0
#  family: Disproportionation

# Reaction 8
reaction('NNHJ(10) + NNHJ(10) <=> N2(2) + HNNH(17)', [1.200000e+06, 2.0, -1.19],
         id='gas-8')
#  Reaction index: Chemkin #9; RMG #16
#  Template reaction: H_Abstraction
#  Flux pairs: H2N2(19), NNHJ(10); H(9), H2(1);
#  From training reaction 3073 used for N5dc_H;H_rad
#  Exact match found for rate rule [N5dc_H;H_rad]
#  Euclidian distance = 0
#  Multiplied by reaction path degeneracy 2.0
#  family: H_Abstraction

# Reaction 9
reaction('H(9) + H2N2(19) <=> NNHJ(10) + H2(1)', [4.800000e+08, 1.5, 4.16],
         id='gas-9')
#  Reaction index: Chemkin #10; RMG #27
#  Template reaction: R_Recombination
#  Flux pairs: NNHJ(10), H2N2(19); H(9), H2N2(19);
#  BM rule fitted to 2 training reactions at node Root_1R->H_N-2R->S_N-2CHNO->H_N-2CNO-inRing_Ext-2CNO-R_Sp-3R!H=2CCNNOO
#      Total Standard Deviation in ln(k): 7.12496428854
#  Exact match found for rate rule [Root_1R->H_N-2R->S_N-2CHNO->H_N-2CNO-inRing_Ext-2CNO-R_Sp-3R!H=2CCNNOO]
#  Euclidian distance = 0
#  family: R_Recombination

# Reaction 10
reaction('H(9) + NNHJ(10) <=> H2N2(19)', [8.244740e+18, -1.499, 0.0],
         id='gas-10')
#  Reaction index: Chemkin #11; RMG #31
#  Template reaction: Disproportionation
#  Flux pairs: NNHJ(10), N2(2); NNHJ(10), H2N2(19);
#  Estimated using template [Y_rad;N3d/H_d_Nrad] for rate rule [N5_rad;N3d/H_d_Nrad]
#  Euclidian distance = 1.0
#  family: Disproportionation

# Reaction 11
reaction('NNHJ(10) + NNHJ(10) <=> N2(2) + H2N2(19)', [3.197301e+06, 1.938, -1.152],
         id='gas-11')
#  Reaction index: Chemkin #12; RMG #51
#  Template reaction: H_Abstraction
#  Flux pairs: H2N2(19), NNHJ(10); NNHJ(10), HNNH(17);
#  Estimated using template [N5dc_H;N3_rad] for rate rule [N5dc_H;N3d_rad]
#  Euclidian distance = 1.0
#  Multiplied by reaction path degeneracy 2.0
#  family: H_Abstraction

# Reaction 12
reaction('NNHJ(10) + H2N2(19) <=> NNHJ(10) + HNNH(17)', [1.840000e+06, 1.94, 0.87],
         id='gas-12')
#  Reaction index: Chemkin #1; RMG #6
#  Template reaction: Surface_Adsorption_vdW
#  Flux pairs: X(3), H2X(12); H2(1), H2X(12);
#  Exact match found for rate rule [Adsorbate;VacantSite]
#  Euclidian distance = 0
#  family: Surface_Adsorption_vdW

# surface1 Reaction 1
surface_reaction('X(3) + H2(1) <=> H2X(12)', stick(1.000000e-01, 0.0, 0.0),
                 id='surface1-1')
#  Reaction index: Chemkin #2; RMG #8
#  Template reaction: Surface_Adsorption_vdW
#  Flux pairs: X(3), N2X(14); N2(2), N2X(14);
#  Exact match found for rate rule [Adsorbate;VacantSite]
#  Euclidian distance = 0
#  family: Surface_Adsorption_vdW

# surface1 Reaction 2
surface_reaction('X(3) + N2(2) <=> N2X(14)', stick(1.000000e-01, 0.0, 0.0),
                 id='surface1-2')
#  Reaction index: Chemkin #3; RMG #5
#  Template reaction: Surface_Adsorption_Dissociative
#  Flux pairs: H2(1), HX(11); H2(1), HX(11);
#  Exact match found for rate rule [Adsorbate;VacantSite1;VacantSite2]
#  Euclidian distance = 0
#  family: Surface_Adsorption_Dissociative

# surface1 Reaction 3
surface_reaction('X(3) + X(3) + H2(1) <=> HX(11) + HX(11)', stick(1.000000e-02, 0.0, 10.0),
                 id='surface1-3')
#  Reaction index: Chemkin #4; RMG #9
#  Template reaction: Surface_Adsorption_Single
#  Flux pairs: H(9), HX(11); X(3), HX(11);
#  Exact match found for rate rule [Adsorbate;VacantSite]
#  Euclidian distance = 0
#  family: Surface_Adsorption_Single

# surface1 Reaction 4
surface_reaction('X(3) + H(9) <=> HX(11)', stick(1.000000e-01, 0.0, 0.0),
                 id='surface1-4')
#  Reaction index: Chemkin #5; RMG #23
#  Template reaction: Surface_Adsorption_Single
#  Flux pairs: X(3), NNHJX(25); NNHJ(10), NNHJX(25);
#  Exact match found for rate rule [Adsorbate;VacantSite]
#  Euclidian distance = 0
#  family: Surface_Adsorption_Single

# surface1 Reaction 5
surface_reaction('X(3) + NNHJ(10) <=> NNHJX(25)', stick(1.000000e-01, 0.0, 0.0),
                 id='surface1-5')
#  Reaction index: Chemkin #6; RMG #21
#  Template reaction: Surface_Adsorption_Single
#  Flux pairs: X(3), HN2X(23); NNHJ(10), HN2X(23);
#  Exact match found for rate rule [Adsorbate;VacantSite]
#  Euclidian distance = 0
#  family: Surface_Adsorption_Single

# surface1 Reaction 6
surface_reaction('X(3) + NNHJ(10) <=> HN2X(23)', stick(1.000000e-01, 0.0, 0.0),
                 id='surface1-6')
#  Reaction index: Chemkin #7; RMG #22
#  Template reaction: Surface_Adsorption_vdW
#  Flux pairs: X(3), NNHJX(24); NNHJ(10), NNHJX(24);
#  Exact match found for rate rule [Adsorbate;VacantSite]
#  Euclidian distance = 0
#  family: Surface_Adsorption_vdW
#  Ea raised from 0.0 to 26.4 kJ/mol to match endothermicity of reaction.

# surface1 Reaction 7
surface_reaction('X(3) + NNHJ(10) <=> NNHJX(24)', stick(1.000000e-01, 0.0, 6.32),
                 id='surface1-7')
#  Reaction index: Chemkin #8; RMG #40
#  Template reaction: Surface_Adsorption_Dissociative
#  Flux pairs: HNNH(17), HN2X(23); HNNH(17), HX(11);
#  Exact match found for rate rule [Adsorbate;VacantSite1;VacantSite2]
#  Euclidian distance = 0
#  Multiplied by reaction path degeneracy 2.0
#  family: Surface_Adsorption_Dissociative

# surface1 Reaction 8
surface_reaction('X(3) + X(3) + HNNH(17) <=> HX(11) + HN2X(23)', stick(2.000000e-02, 0.0, 10.0),
                 id='surface1-8')
#  Reaction index: Chemkin #9; RMG #45
#  Template reaction: Surface_Adsorption_vdW
#  Flux pairs: X(3), H2N2X(34); HNNH(17), H2N2X(34);
#  Exact match found for rate rule [Adsorbate;VacantSite]
#  Euclidian distance = 0
#  family: Surface_Adsorption_vdW

# surface1 Reaction 9
surface_reaction('X(3) + HNNH(17) <=> H2N2X(34)', stick(1.000000e-01, 0.0, 0.0),
                 id='surface1-9')
#  Reaction index: Chemkin #10; RMG #38
#  Template reaction: Surface_Adsorption_Dissociative
#  Flux pairs: H2N2(19), NNHJX(25); H2N2(19), HX(11);
#  Exact match found for rate rule [Adsorbate;VacantSite1;VacantSite2]
#  Euclidian distance = 0
#  Multiplied by reaction path degeneracy 2.0
#  family: Surface_Adsorption_Dissociative

# surface1 Reaction 10
surface_reaction('X(3) + X(3) + H2N2(19) <=> HX(11) + NNHJX(25)', stick(2.000000e-02, 0.0, 10.0),
                 id='surface1-10')
#  Reaction index: Chemkin #11; RMG #57
#  Template reaction: Surface_Adsorption_vdW
#  Flux pairs: X(3), H2N2X(40); H2N2(19), H2N2X(40);
#  Exact match found for rate rule [Adsorbate;VacantSite]
#  Euclidian distance = 0
#  family: Surface_Adsorption_vdW

# surface1 Reaction 11
surface_reaction('X(3) + H2N2(19) <=> H2N2X(40)', stick(1.000000e-01, 0.0, 0.0),
                 id='surface1-11')
